[General]
network = token_ring.TokenRing
cmdenv-config-name = run1
sim-time-limit = 3600s
tkenv-default-config = run1
**.module-eventlog-recording = false

[Config run1]
TokenRing.numNodes = 6
TokenRing.node[1].requestPeriod = uniform(0s,5s)
TokenRing.node[1].usePeriod = uniform(50s,100s)


